$ Exact sphere_n33 mesh; no COMSOL remeshing
BEGIN BULK
MAT1,1,1.0,,0.3,1.0
PSHELL,1,1,1.0E-6
GRID,1,,0.057735026918962588,-0.057735026918962588,-0.057735026918962588
GRID,2,,0.05890040513774291,-0.05890040513774291,-0.055330683614243349
GRID,3,,0.060059592797341257,-0.060059592797341257,-0.052779642155239281
GRID,4,,0.061205637248212298,-0.061205637248212298,-0.050077339566719149
GRID,5,,0.062330755509713676,-0.062330755509713676,-0.047220269325540666
GRID,6,,0.063426363472159977,-0.063426363472159977,-0.044206253329081201
GRID,7,,0.064483141993660412,-0.064483141993660412,-0.041034726723238442
GRID,8,,0.065491145912935186,-0.065491145912935186,-0.037707023404417221
GRID,9,,0.066439960431324246,-0.066439960431324246,-0.034226646282803398
GRID,10,,0.0673189067498315,-0.0673189067498315,-0.03059950306810523
GRID,11,,0.068117295262896935,-0.068117295262896935,-0.026834086012656369
GRID,12,,0.068824720161168529,-0.068824720161168529,-0.022941573387056172
GRID,13,,0.069431384340758351,-0.069431384340758351,-0.018935832092934098
GRID,14,,0.069928438628091297,-0.069928438628091297,-0.014833305163534519
GRID,15,,0.070308315240879535,-0.070308315240879535,-0.010652775036496899
GRID,16,,0.070565032900954255,-0.070565032900954255,-0.0064150029909958361
GRID,17,,0.070694450768327796,-0.070694450768327796,-0.0021422560838887188
GRID,18,,0.070694450768327796,-0.070694450768327796,0.0021422560838887188
GRID,19,,0.070565032900954255,-0.070565032900954255,0.0064150029909958361
GRID,20,,0.070308315240879535,-0.070308315240879535,0.010652775036496906
$ ... 6516 like lines cut
CQUAD4,1,1,1,35,36,2
CQUAD4,2,1,2,36,37,3
CQUAD4,3,1,3,37,38,4
CQUAD4,4,1,4,38,39,5
CQUAD4,5,1,5,39,40,6
CQUAD4,6,1,6,40,41,7
CQUAD4,7,1,7,41,42,8
CQUAD4,8,1,8,42,43,9
CQUAD4,9,1,9,43,44,10
CQUAD4,10,1,10,44,45,11
CQUAD4,11,1,11,45,46,12
CQUAD4,12,1,12,46,47,13
CQUAD4,13,1,13,47,48,14
CQUAD4,14,1,14,48,49,15
CQUAD4,15,1,15,49,50,16
CQUAD4,16,1,16,50,51,17
CQUAD4,17,1,17,51,52,18
CQUAD4,18,1,18,52,53,19
CQUAD4,19,1,19,53,54,20
CQUAD4,20,1,20,54,55,21
$ ... 6514 like lines cut
ENDDATA
